LTspice 24.0.12 for Windows
Circuit: * C:\Users\micro\Desktop\Abhinav college\Resources\Sem 5\DCMOS\Project\LVS_Adder_v2.asc
Start Time: Mon Nov 18 23:56:16 2024
solver = Normal
Maximum thread count: 8
tnom = 27
temp = 27
method = modified trap
WARNING: Node NC_02 is floating.
WARNING: Node NC_03 is floating.
WARNING: Node NC_04 is floating.
WARNING: Node K~ is floating.
WARNING: Node N003 is floating.
WARNING: Node P~ is floating.
WARNING: Node NC_05 is floating.
WARNING: Node NC_06 is floating.
WARNING: Node NC_07 is floating.
WARNING: Node NC_08 is floating.
WARNING: Node NC_09 is floating.
WARNING: Node NC_10 is floating.
WARNING: Node NC_11 is floating.
WARNING: Node NC_12 is floating.
WARNING: Node NC_13 is floating.
WARNING: Node NC_14 is floating.
WARNING: Node NC_15 is floating.
WARNING: Node NC_16 is floating.
WARNING: Node NC_17 is floating.
WARNING: Node NC_18 is floating.
WARNING: Node NC_19 is floating.
WARNING: Node NC_20 is floating.
WARNING: Node NC_21 is floating.
WARNING: Node NC_22 is floating.
WARNING: Node NC_23 is floating.
WARNING: Node NC_24 is floating.
WARNING: Node NC_25 is floating.
WARNING: Node NC_26 is floating.

WARNING: Less than two connections to node nc_01.  This node is used by m§w_1p_1.
WARNING: Less than two connections to node nc_02.  This node is used by m§w_1p_1.
WARNING: Less than two connections to node nc_03.  This node is used by m§w_1p_1.
WARNING: Less than two connections to node nc_04.  This node is used by m§w_1p_1.
WARNING: Less than two connections to node k~.  This node is used by m§w_1p_2.
WARNING: Less than two connections to node n003.  This node is used by m§w_1p_2.
WARNING: Less than two connections to node ci~.  This node is used by m2.
WARNING: Less than two connections to node ci.  This node is used by m1.
WARNING: Less than two connections to node nc_05.  This node is used by m5.
WARNING: Less than two connections to node nc_06.  This node is used by m6.
WARNING: Less than two connections to node nc_07.  This node is used by m7.
WARNING: Less than two connections to node nc_08.  This node is used by m8.
WARNING: Less than two connections to node nc_09.  This node is used by m9.
WARNING: Less than two connections to node nc_10.  This node is used by m10.
WARNING: Less than two connections to node nc_11.  This node is used by m11.
WARNING: Less than two connections to node nc_12.  This node is used by m12.
WARNING: Less than two connections to node nc_13.  This node is used by m13.
WARNING: Less than two connections to node nc_14.  This node is used by m14.
WARNING: Less than two connections to node nc_15.  This node is used by m15.
WARNING: Less than two connections to node nc_16.  This node is used by m16.
WARNING: Less than two connections to node nc_17.  This node is used by m17.
WARNING: Less than two connections to node nc_18.  This node is used by m18.
WARNING: Less than two connections to node nc_19.  This node is used by m19.
WARNING: Less than two connections to node nc_20.  This node is used by m20.
WARNING: Less than two connections to node nc_21.  This node is used by m21.
WARNING: Less than two connections to node nc_22.  This node is used by m22.
WARNING: Less than two connections to node nc_23.  This node is used by m23.
WARNING: Less than two connections to node nc_24.  This node is used by m24.
WARNING: Less than two connections to node nc_25.  This node is used by m25.
WARNING: Less than two connections to node nc_26.  This node is used by m26.
WARNING: Less than two connections to node cin.  This node is used by v6.
Early termination of direct N-R iteration.
Direct Newton iteration failed to find .op point.  (Use ".option noopiter" to skip.)
Starting Gmin stepping
Gmin = 10
Gmin = 1.07374
Gmin = 0.115292
Gmin = 0.0123794
Gmin = 0.00132923
Gmin = 0.000142725
Gmin = 1.5325e-05
Gmin = 1.6455e-06
Gmin = 1.76685e-07
Gmin = 1.89714e-08
Gmin = 2.03704e-09
Gmin = 2.18725e-10
Gmin = 2.34854e-11
Gmin = 2.52173e-12
Gmin = 2.70769e-13
Gmin = 0
Gmin stepping succeeded in finding the operating point.

Total elapsed time: 44.082 seconds.

